Version 4
SHEET 1 5780 1104
WIRE 1440 -48 1440 -64
WIRE 1472 -32 1472 -48
WIRE 112 -16 96 -16
WIRE 208 -16 176 -16
WIRE 224 -16 208 -16
WIRE 320 -16 288 -16
WIRE 336 -16 320 -16
WIRE 432 -16 400 -16
WIRE 448 -16 432 -16
WIRE 544 -16 512 -16
WIRE 560 -16 544 -16
WIRE 656 -16 624 -16
WIRE 736 -16 656 -16
WIRE 832 -16 736 -16
WIRE 944 -16 832 -16
WIRE 1152 -16 944 -16
WIRE 1248 -16 1152 -16
WIRE 1376 -16 1328 -16
WIRE 736 0 736 -16
WIRE 832 0 832 -16
WIRE 944 0 944 -16
WIRE 1152 16 1152 -16
WIRE 2080 16 1520 16
WIRE 1376 48 1328 48
WIRE 1584 48 1520 48
WIRE 1920 48 1584 48
WIRE 736 80 736 64
WIRE 784 80 736 80
WIRE 832 80 832 64
WIRE 832 80 784 80
WIRE 944 80 944 64
WIRE 944 80 832 80
WIRE 1584 80 1584 48
WIRE 96 96 96 -16
WIRE 112 96 96 96
WIRE 208 96 208 -16
WIRE 208 96 192 96
WIRE 224 96 208 96
WIRE 320 96 320 -16
WIRE 320 96 304 96
WIRE 336 96 320 96
WIRE 432 96 432 -16
WIRE 432 96 416 96
WIRE 448 96 432 96
WIRE 544 96 544 -16
WIRE 544 96 528 96
WIRE 560 96 544 96
WIRE 656 96 656 -16
WIRE 656 96 640 96
WIRE 784 96 784 80
WIRE 1328 160 1328 48
WIRE 1584 160 1584 144
WIRE 1584 160 1328 160
WIRE 656 240 656 96
WIRE 720 240 656 240
WIRE 928 240 912 240
WIRE 1680 240 1664 240
WIRE 1888 240 1872 240
WIRE 2080 256 2080 16
WIRE 2096 256 2080 256
WIRE 2304 256 2288 256
WIRE 2720 256 2304 256
WIRE 3008 256 2912 256
WIRE 1328 272 1328 160
WIRE 1408 272 1328 272
WIRE 1504 272 1408 272
WIRE 1584 272 1584 160
WIRE 1664 272 1664 240
WIRE 1664 272 1584 272
WIRE 1888 272 1888 240
WIRE 1920 272 1920 48
WIRE 1920 272 1888 272
WIRE 3008 272 3008 256
WIRE 1328 288 1328 272
WIRE 96 304 96 96
WIRE 528 304 464 304
WIRE 640 304 608 304
WIRE 928 304 928 240
WIRE 928 304 912 304
WIRE 1040 304 1040 288
WIRE 1152 304 1152 96
WIRE 1152 304 1040 304
WIRE 1664 304 1664 272
WIRE 1680 304 1664 304
WIRE 1888 304 1888 272
WIRE 1888 304 1872 304
WIRE 1040 320 1040 304
WIRE 1152 320 1152 304
WIRE 2080 320 2080 256
WIRE 2096 320 2080 320
WIRE 2304 320 2304 256
WIRE 2304 320 2288 320
WIRE 2400 320 2304 320
WIRE 1408 336 1408 272
WIRE 1504 336 1504 272
WIRE 2624 352 2528 352
WIRE 464 368 464 304
WIRE 528 368 464 368
WIRE 640 368 608 368
WIRE 928 368 912 368
WIRE 1680 368 1664 368
WIRE 1888 368 1872 368
WIRE 2096 384 2080 384
WIRE 2304 384 2288 384
WIRE 2400 384 2304 384
WIRE 464 400 464 368
WIRE 1328 400 1328 352
WIRE 1664 400 1664 368
WIRE 1664 400 1584 400
WIRE 1888 400 1888 368
WIRE 1920 400 1888 400
WIRE 1152 416 1152 384
WIRE 720 432 656 432
WIRE 928 432 928 368
WIRE 928 432 912 432
WIRE 1664 432 1664 400
WIRE 1680 432 1664 432
WIRE 1888 432 1888 400
WIRE 1888 432 1872 432
WIRE 2080 448 2080 384
WIRE 2096 448 2080 448
WIRE 2304 448 2304 384
WIRE 2304 448 2288 448
WIRE 2720 448 2304 448
WIRE 2960 448 2912 448
WIRE 3056 448 2960 448
WIRE 3072 448 3056 448
WIRE 3280 448 3264 448
WIRE 3696 448 3280 448
WIRE 3904 448 3888 448
WIRE 1328 480 1328 464
WIRE 1408 480 1408 416
WIRE 1408 480 1328 480
WIRE 1504 480 1504 416
WIRE 1504 480 1408 480
WIRE 1328 512 1328 480
WIRE 1584 512 1584 400
WIRE 1584 512 1328 512
WIRE 3056 512 3056 448
WIRE 3072 512 3056 512
WIRE 3280 512 3280 448
WIRE 3280 512 3264 512
WIRE 3376 512 3280 512
WIRE 3696 512 3680 512
WIRE 3904 512 3904 448
WIRE 3904 512 3888 512
WIRE 816 528 816 480
WIRE 1584 528 1584 512
WIRE 1776 528 1776 480
WIRE 2192 544 2192 496
WIRE 2816 544 2816 496
WIRE 3600 544 3504 544
WIRE 96 576 96 384
WIRE 112 576 96 576
WIRE 208 576 176 576
WIRE 224 576 208 576
WIRE 320 576 288 576
WIRE 336 576 320 576
WIRE 432 576 400 576
WIRE 448 576 432 576
WIRE 544 576 512 576
WIRE 560 576 544 576
WIRE 656 576 656 432
WIRE 656 576 624 576
WIRE 3072 576 3056 576
WIRE 3280 576 3264 576
WIRE 3376 576 3280 576
WIRE 3600 576 3600 544
WIRE 3696 576 3600 576
WIRE 3888 576 3872 576
WIRE 3904 576 3888 576
WIRE 768 592 768 576
WIRE 768 592 720 592
WIRE 816 592 768 592
WIRE 928 592 816 592
WIRE 2624 592 2624 352
WIRE 2960 592 2960 448
WIRE 2960 592 2624 592
WIRE 720 608 720 592
WIRE 816 608 816 592
WIRE 928 608 928 592
WIRE 1328 624 1328 512
WIRE 1376 624 1328 624
WIRE 1584 624 1584 592
WIRE 1584 624 1520 624
WIRE 1920 624 1920 400
WIRE 1920 624 1584 624
WIRE 3056 640 3056 576
WIRE 3072 640 3056 640
WIRE 3280 640 3280 576
WIRE 3280 640 3264 640
WIRE 3696 640 3280 640
WIRE 3904 640 3904 576
WIRE 3904 640 3888 640
WIRE 2080 656 2080 448
WIRE 2080 656 1520 656
WIRE 96 688 96 576
WIRE 112 688 96 688
WIRE 208 688 208 576
WIRE 208 688 192 688
WIRE 224 688 208 688
WIRE 320 688 320 576
WIRE 320 688 304 688
WIRE 336 688 320 688
WIRE 432 688 432 576
WIRE 432 688 416 688
WIRE 448 688 432 688
WIRE 544 688 544 576
WIRE 544 688 528 688
WIRE 560 688 544 688
WIRE 656 688 656 576
WIRE 656 688 640 688
WIRE 720 688 720 672
WIRE 720 688 656 688
WIRE 816 688 816 672
WIRE 816 688 720 688
WIRE 928 688 928 672
WIRE 928 688 816 688
WIRE 1088 688 1088 672
WIRE 1088 688 928 688
WIRE 1248 688 1088 688
WIRE 1376 688 1328 688
WIRE 4480 704 4400 704
WIRE 4608 704 4560 704
WIRE 4704 704 4608 704
WIRE 1472 720 1472 704
WIRE 4608 720 4608 704
WIRE 1440 736 1440 720
WIRE 3056 736 3056 640
WIRE 3168 736 3168 688
WIRE 3792 736 3792 688
WIRE 3600 784 3600 576
WIRE 4032 784 3600 784
WIRE 4400 784 4400 704
WIRE 4400 784 4384 784
WIRE 4704 784 4704 704
WIRE 4608 800 4608 784
WIRE 4608 800 4560 800
WIRE 4560 816 4560 800
WIRE 4608 832 4608 800
WIRE 4032 848 3968 848
WIRE 4400 848 4384 848
WIRE 3968 880 3968 848
WIRE 4400 912 4400 848
WIRE 4480 912 4400 912
WIRE 4608 912 4608 896
WIRE 4608 912 4560 912
WIRE 4704 912 4704 848
WIRE 4704 912 4608 912
WIRE 4144 992 4144 960
FLAG 464 400 0
FLAG 816 528 0
FLAG 784 96 0
FLAG 672 -256 0
FLAG 800 -256 0
FLAG 672 -336 P5V
FLAG 800 -336 N5V
FLAG 1440 -64 P5V
FLAG 1472 -48 P5V
FLAG 1440 80 N5V
FLAG 1040 128 P5V
FLAG 1040 480 N5V
FLAG 1152 416 0
FLAG 768 576 0
FLAG 1088 592 0
FLAG 1440 736 P5V
FLAG 1472 720 P5V
FLAG 1440 592 N5V
FLAG 1776 528 0
FLAG 2192 544 0
FLAG 3008 272 0
FLAG 2816 544 0
FLAG 2464 384 P5V
FLAG 2464 320 N5V
FLAG 4144 656 P5V
FLAG 4144 992 0
FLAG 3968 880 0
FLAG 544 -256 0
FLAG 544 -336 P2V5
FLAG 4384 928 P2V5
FLAG 4560 816 0
FLAG 3168 736 0
FLAG 3792 736 0
FLAG 3440 576 P5V
FLAG 3440 512 N5V
FLAG 3056 736 0
FLAG 3680 512 0
SYMBOL res 208 80 R90
WINDOW 0 0 56 VBottom 2
WINDOW 3 32 56 VTop 2
SYMATTR InstName R1
SYMATTR Value 2Meg
SYMATTR SpiceLine tol=0.1 pwr=0.25
SYMBOL cap 176 -32 R90
WINDOW 0 0 32 VBottom 2
WINDOW 3 32 32 VTop 2
SYMATTR InstName C1
SYMATTR Value 10p
SYMATTR SpiceLine V=630 Irms=0 Rser=0 Lser=0 mfg="Murata" pn="GCM31A5C2J100JX01" type="C0G"
SYMBOL res 320 80 R90
WINDOW 0 0 56 VBottom 2
WINDOW 3 32 56 VTop 2
SYMATTR InstName R2
SYMATTR Value 2Meg
SYMATTR SpiceLine tol=0.1 pwr=0.25
SYMBOL cap 288 -32 R90
WINDOW 0 0 32 VBottom 2
WINDOW 3 32 32 VTop 2
SYMATTR InstName C2
SYMATTR Value 10p
SYMATTR SpiceLine V=630 Irms=0 Rser=0 Lser=0 mfg="Murata" pn="GCM31A5C2J100JX01" type="C0G"
SYMBOL res 432 80 R90
WINDOW 0 0 56 VBottom 2
WINDOW 3 32 56 VTop 2
SYMATTR InstName R3
SYMATTR Value 2Meg
SYMATTR SpiceLine tol=0.1 pwr=0.25
SYMBOL cap 400 -32 R90
WINDOW 0 0 32 VBottom 2
WINDOW 3 32 32 VTop 2
SYMATTR InstName C3
SYMATTR Value 10p
SYMATTR SpiceLine V=630 Irms=0 Rser=0 Lser=0 mfg="Murata" pn="GCM31A5C2J100JX01" type="C0G"
SYMBOL res 544 80 R90
WINDOW 0 0 56 VBottom 2
WINDOW 3 32 56 VTop 2
SYMATTR InstName R4
SYMATTR Value 2Meg
SYMATTR SpiceLine tol=0.1 pwr=0.25
SYMBOL cap 512 -32 R90
WINDOW 0 0 32 VBottom 2
WINDOW 3 32 32 VTop 2
SYMATTR InstName C4
SYMATTR Value 10p
SYMATTR SpiceLine V=630 Irms=0 Rser=0 Lser=0 mfg="Murata" pn="GCM31A5C2J100JX01" type="C0G"
SYMBOL res 656 80 R90
WINDOW 0 0 56 VBottom 2
WINDOW 3 32 56 VTop 2
SYMATTR InstName R5
SYMATTR Value 2Meg
SYMATTR SpiceLine tol=0.1 pwr=0.25
SYMBOL cap 624 -32 R90
WINDOW 0 0 32 VBottom 2
WINDOW 3 32 32 VTop 2
SYMATTR InstName C5
SYMATTR Value 10p
SYMATTR SpiceLine V=630 Irms=0 Rser=0 Lser=0 mfg="Murata" pn="GCM31A5C2J100JX01" type="C0G"
SYMBOL Misc\\LT5400-1 816 336 R0
SYMATTR InstName U1
SYMBOL res 736 288 R90
WINDOW 0 6 109 VBottom 2
WINDOW 3 32 56 VTop 2
SYMATTR InstName R6
SYMATTR Value 91
SYMATTR SpiceLine tol=1
SYMBOL res 736 352 R90
WINDOW 0 4 95 VBottom 2
WINDOW 3 32 56 VTop 2
SYMATTR InstName R7
SYMATTR Value 91
SYMATTR SpiceLine tol=1
SYMBOL res 208 672 R90
WINDOW 0 0 56 VBottom 2
WINDOW 3 32 56 VTop 2
SYMATTR InstName R8
SYMATTR Value 2Meg
SYMATTR SpiceLine tol=0.1 pwr=0.25
SYMBOL cap 176 560 R90
WINDOW 0 0 32 VBottom 2
WINDOW 3 32 32 VTop 2
SYMATTR InstName C6
SYMATTR Value 10p
SYMATTR SpiceLine V=630 Irms=0 Rser=0 Lser=0 mfg="Murata" pn="GCM31A5C2J100JX01" type="C0G"
SYMBOL res 320 672 R90
WINDOW 0 0 56 VBottom 2
WINDOW 3 32 56 VTop 2
SYMATTR InstName R9
SYMATTR Value 2Meg
SYMATTR SpiceLine tol=0.1 pwr=0.25
SYMBOL cap 288 560 R90
WINDOW 0 0 32 VBottom 2
WINDOW 3 32 32 VTop 2
SYMATTR InstName C7
SYMATTR Value 10p
SYMATTR SpiceLine V=630 Irms=0 Rser=0 Lser=0 mfg="Murata" pn="GCM31A5C2J100JX01" type="C0G"
SYMBOL res 432 672 R90
WINDOW 0 0 56 VBottom 2
WINDOW 3 32 56 VTop 2
SYMATTR InstName R10
SYMATTR Value 2Meg
SYMATTR SpiceLine tol=0.1 pwr=0.25
SYMBOL cap 400 560 R90
WINDOW 0 0 32 VBottom 2
WINDOW 3 32 32 VTop 2
SYMATTR InstName C8
SYMATTR Value 10p
SYMATTR SpiceLine V=630 Irms=0 Rser=0 Lser=0 mfg="Murata" pn="GCM31A5C2J100JX01" type="C0G"
SYMBOL res 544 672 R90
WINDOW 0 0 56 VBottom 2
WINDOW 3 32 56 VTop 2
SYMATTR InstName R11
SYMATTR Value 2Meg
SYMATTR SpiceLine tol=0.1 pwr=0.25
SYMBOL cap 512 560 R90
WINDOW 0 0 32 VBottom 2
WINDOW 3 32 32 VTop 2
SYMATTR InstName C9
SYMATTR Value 10p
SYMATTR SpiceLine V=630 Irms=0 Rser=0 Lser=0 mfg="Murata" pn="GCM31A5C2J100JX01" type="C0G"
SYMBOL res 656 672 R90
WINDOW 0 0 56 VBottom 2
WINDOW 3 32 56 VTop 2
SYMATTR InstName R12
SYMATTR Value 2Meg
SYMATTR SpiceLine tol=0.1 pwr=0.25
SYMBOL cap 624 560 R90
WINDOW 0 0 32 VBottom 2
WINDOW 3 32 32 VTop 2
SYMATTR InstName C10
SYMATTR Value 10p
SYMATTR SpiceLine V=630 Irms=0 Rser=0 Lser=0 mfg="Murata" pn="GCM31A5C2J100JX01" type="C0G"
SYMBOL res 624 288 R90
WINDOW 0 10 117 VBottom 2
WINDOW 3 32 56 VTop 2
SYMATTR InstName R13
SYMATTR Value 50
SYMATTR SpiceLine tol=1
SYMBOL res 624 352 R90
WINDOW 0 11 114 VBottom 2
WINDOW 3 32 56 VTop 2
SYMATTR InstName R14
SYMATTR Value 50
SYMBOL voltage 96 288 R0
WINDOW 123 0 0 Left 0
WINDOW 39 0 0 Left 0
SYMATTR InstName V1
SYMATTR Value SINE(0 1 1000)
SYMBOL cap 720 0 R0
SYMATTR InstName C11
SYMATTR Value 330p
SYMATTR SpiceLine V=50 Irms=0 Rser=0.0873 Lser=449p mfg="Würth Elektronik" pn="885012007060 WCAP-CSGP 0805" type="NP0"
SYMBOL cap 816 0 R0
SYMATTR InstName C12
SYMATTR Value 120p
SYMATTR SpiceLine V=50 Irms=0 Rser=0 Lser=0 mfg="Murata" pn="GCM1555C1H121JA16" type="C0G"
SYMBOL res 1136 0 R0
SYMATTR InstName R15
SYMATTR Value 1Meg
SYMATTR SpiceLine tol=1 pwr=0.1
SYMBOL voltage 672 -352 R0
WINDOW 123 0 0 Left 0
WINDOW 39 0 0 Left 0
SYMATTR InstName V2
SYMATTR Value 5
SYMBOL voltage 800 -352 R0
WINDOW 123 0 0 Left 0
WINDOW 39 0 0 Left 0
SYMATTR InstName V3
SYMATTR Value -5
SYMBOL res 1344 -32 R90
WINDOW 0 0 56 VBottom 2
WINDOW 3 32 56 VTop 2
SYMATTR InstName R16
SYMATTR Value 510
SYMATTR SpiceLine tol=1 pwr=0.1
SYMBOL cap 928 0 R0
SYMATTR InstName C13
SYMATTR Value 36p
SYMATTR SpiceLine V=25 Irms=0 Rser=0 Lser=0 mfg="Murata" pn="GCM0335C1E360JA16" type="C0G"
SYMBOL res 1024 112 R0
SYMATTR InstName R17
SYMATTR Value 7.5K
SYMATTR SpiceLine tol=1 pwr=0.1
SYMBOL res 1024 192 R0
SYMATTR InstName R18
SYMATTR Value 5k
SYMATTR SpiceLine tol=1 pwr=0.1
SYMBOL res 1024 304 R0
SYMATTR InstName R19
SYMATTR Value 5k
SYMATTR SpiceLine tol=1 pwr=0.1
SYMBOL res 1024 384 R0
SYMATTR InstName R20
SYMATTR Value 7.5K
SYMATTR SpiceLine tol=1 pwr=0.1
SYMBOL cap 1136 320 R0
SYMATTR InstName C14
SYMATTR Value 0.1µ
SYMATTR SpiceLine V=50 Irms=950m Rser=0.0765605 Lser=0 mfg="KEMET" pn="C2220C104K5RAC" type="X7R"
SYMBOL cap 1568 80 R0
SYMATTR InstName C15
SYMATTR Value 100p
SYMATTR SpiceLine V=25 Irms=0 Rser=0 Lser=0 mfg="Murata" pn="GRM0335C1E101JA01" type="C0G"
SYMBOL AutoGenerated\\ADA4817 1440 16 R0
SYMATTR InstName U2
SYMBOL Misc\\LT5400-4 1776 336 R0
SYMATTR InstName U3
SYMBOL cap 704 672 M180
WINDOW 0 24 56 Left 2
WINDOW 3 24 8 Left 2
SYMATTR InstName C16
SYMATTR Value 330p
SYMATTR SpiceLine V=50 Irms=0 Rser=0.0873 Lser=449p mfg="Würth Elektronik" pn="885012007060 WCAP-CSGP 0805" type="NP0"
SYMBOL cap 800 672 M180
WINDOW 0 24 56 Left 2
WINDOW 3 24 8 Left 2
SYMATTR InstName C17
SYMATTR Value 120p
SYMATTR SpiceLine V=50 Irms=0 Rser=0 Lser=0 mfg="Murata" pn="GCM1555C1H121JA16" type="C0G"
SYMBOL cap 912 672 M180
WINDOW 0 24 56 Left 2
WINDOW 3 24 8 Left 2
SYMATTR InstName C18
SYMATTR Value 36p
SYMATTR SpiceLine V=25 Irms=0 Rser=0 Lser=0 mfg="Murata" pn="GCM0335C1E360JA16" type="C0G"
SYMBOL res 1072 576 R0
SYMATTR InstName R22
SYMATTR Value 1Meg
SYMATTR SpiceLine tol=1 pwr=0.1
SYMBOL res 1344 704 M270
WINDOW 0 32 56 VTop 2
WINDOW 3 0 56 VBottom 2
SYMATTR InstName R21
SYMATTR Value 510
SYMATTR SpiceLine tol=1 pwr=0.1
SYMBOL cap 1568 592 M180
WINDOW 0 24 56 Left 2
WINDOW 3 24 8 Left 2
SYMATTR InstName C19
SYMATTR Value 100p
SYMATTR SpiceLine V=25 Irms=0 Rser=0 Lser=0 mfg="Murata" pn="GRM0335C1E101JA01" type="C0G"
SYMBOL AutoGenerated\\ADA4817 1440 656 M180
SYMATTR InstName U4
SYMBOL res 1392 320 R0
SYMATTR InstName R23
SYMATTR Value 1.5k
SYMBOL res 1488 320 R0
SYMATTR InstName R24
SYMATTR Value 120
SYMBOL cap 1312 288 R0
SYMATTR InstName C20
SYMATTR Value 470p
SYMBOL cap 1312 400 R0
SYMATTR InstName C21
SYMATTR Value 10n
SYMBOL Misc\\LT5400-4 2192 352 R0
SYMATTR InstName U6
SYMBOL Misc\\LT5400-4 2816 352 R0
SYMATTR InstName U7
SYMBOL OpAmps\\AD8475 4256 816 R0
SYMATTR InstName U8
SYMBOL voltage 544 -352 R0
WINDOW 123 0 0 Left 0
WINDOW 39 0 0 Left 0
SYMATTR InstName V4
SYMATTR Value 2.5
SYMBOL res 4576 688 R90
WINDOW 0 0 56 VBottom 2
WINDOW 3 32 56 VTop 2
SYMATTR InstName R25
SYMATTR Value 33
SYMBOL res 4576 896 R90
WINDOW 0 0 56 VBottom 2
WINDOW 3 32 56 VTop 2
SYMATTR InstName R26
SYMATTR Value 33
SYMBOL cap 4592 720 R0
SYMATTR InstName C22
SYMATTR Value 560p
SYMBOL cap 4592 832 R0
SYMATTR InstName C23
SYMATTR Value 560p
SYMBOL cap 4688 784 R0
SYMATTR InstName C24
SYMATTR Value 270p
SYMBOL AutoGenerated\\LMH6611 2464 352 M180
WINDOW 0 90 68 Bottom 2
WINDOW 3 89 17 Top 2
SYMATTR InstName U5
SYMBOL Misc\\LT5400-4 3168 544 R0
SYMATTR InstName U9
SYMBOL AutoGenerated\\LMH6611 3440 544 M180
WINDOW 0 90 68 Bottom 2
WINDOW 3 89 17 Top 2
SYMATTR InstName U11
SYMBOL Misc\\LT5400-8 3792 544 R0
SYMATTR InstName U13
TEXT 960 -248 Left 2 !.tran 0.002
TEXT 960 -312 Left 2 !.lib ada4817.cir
TEXT 960 -344 Left 2 !.lib LMH6611.MOD
