Version 4
SHEET 1 1596 736
WIRE 112 -16 96 -16
WIRE 208 -16 176 -16
WIRE 224 -16 208 -16
WIRE 320 -16 288 -16
WIRE 336 -16 320 -16
WIRE 432 -16 400 -16
WIRE 448 -16 432 -16
WIRE 544 -16 512 -16
WIRE 560 -16 544 -16
WIRE 656 -16 624 -16
WIRE 736 -16 656 -16
WIRE 832 -16 736 -16
WIRE 1152 -16 832 -16
WIRE 736 0 736 -16
WIRE 832 0 832 -16
WIRE 1152 16 1152 -16
WIRE 736 80 736 64
WIRE 784 80 736 80
WIRE 832 80 832 64
WIRE 832 80 784 80
WIRE 96 96 96 -16
WIRE 112 96 96 96
WIRE 208 96 208 -16
WIRE 208 96 192 96
WIRE 224 96 208 96
WIRE 320 96 320 -16
WIRE 320 96 304 96
WIRE 336 96 320 96
WIRE 432 96 432 -16
WIRE 432 96 416 96
WIRE 448 96 432 96
WIRE 544 96 544 -16
WIRE 544 96 528 96
WIRE 560 96 544 96
WIRE 656 96 656 -16
WIRE 656 96 640 96
WIRE 784 96 784 80
WIRE 656 240 656 96
WIRE 720 240 656 240
WIRE 928 240 912 240
WIRE 96 288 96 96
WIRE 528 304 464 304
WIRE 640 304 608 304
WIRE 928 304 928 240
WIRE 928 304 912 304
WIRE 464 368 464 304
WIRE 528 368 464 368
WIRE 640 368 608 368
WIRE 928 368 912 368
WIRE 464 400 464 368
WIRE 720 432 656 432
WIRE 928 432 928 368
WIRE 928 432 912 432
WIRE 816 528 816 480
WIRE 96 576 96 368
WIRE 112 576 96 576
WIRE 208 576 176 576
WIRE 224 576 208 576
WIRE 320 576 288 576
WIRE 336 576 320 576
WIRE 432 576 400 576
WIRE 448 576 432 576
WIRE 544 576 512 576
WIRE 560 576 544 576
WIRE 656 576 656 432
WIRE 656 576 624 576
WIRE 96 688 96 576
WIRE 112 688 96 688
WIRE 208 688 208 576
WIRE 208 688 192 688
WIRE 224 688 208 688
WIRE 320 688 320 576
WIRE 320 688 304 688
WIRE 336 688 320 688
WIRE 432 688 432 576
WIRE 432 688 416 688
WIRE 448 688 432 688
WIRE 544 688 544 576
WIRE 544 688 528 688
WIRE 560 688 544 688
WIRE 656 688 656 576
WIRE 656 688 640 688
FLAG 464 400 0
FLAG 816 528 0
FLAG 784 96 0
FLAG 672 -256 0
FLAG 800 -256 0
FLAG 672 -336 P5V
FLAG 800 -336 N5V
SYMBOL res 208 80 R90
WINDOW 0 0 56 VBottom 2
WINDOW 3 32 56 VTop 2
SYMATTR InstName R1
SYMATTR Value 1Meg
SYMATTR SpiceLine tol=0.1 pwr=0.25
SYMBOL cap 176 -32 R90
WINDOW 0 0 32 VBottom 2
WINDOW 3 32 32 VTop 2
SYMATTR InstName C1
SYMATTR Value 10p
SYMATTR SpiceLine V=630 Irms=0 Rser=0 Lser=0 mfg="Murata" pn="GCM31A5C2J100JX01" type="C0G"
SYMBOL res 320 80 R90
WINDOW 0 0 56 VBottom 2
WINDOW 3 32 56 VTop 2
SYMATTR InstName R2
SYMATTR Value 1Meg
SYMATTR SpiceLine tol=0.1 pwr=0.25
SYMBOL cap 288 -32 R90
WINDOW 0 0 32 VBottom 2
WINDOW 3 32 32 VTop 2
SYMATTR InstName C2
SYMATTR Value 10p
SYMATTR SpiceLine V=630 Irms=0 Rser=0 Lser=0 mfg="Murata" pn="GCM31A5C2J100JX01" type="C0G"
SYMBOL res 432 80 R90
WINDOW 0 0 56 VBottom 2
WINDOW 3 32 56 VTop 2
SYMATTR InstName R3
SYMATTR Value 1Meg
SYMATTR SpiceLine tol=0.1 pwr=0.25
SYMBOL cap 400 -32 R90
WINDOW 0 0 32 VBottom 2
WINDOW 3 32 32 VTop 2
SYMATTR InstName C3
SYMATTR Value 10p
SYMATTR SpiceLine V=630 Irms=0 Rser=0 Lser=0 mfg="Murata" pn="GCM31A5C2J100JX01" type="C0G"
SYMBOL res 544 80 R90
WINDOW 0 0 56 VBottom 2
WINDOW 3 32 56 VTop 2
SYMATTR InstName R4
SYMATTR Value 1Meg
SYMATTR SpiceLine tol=0.1 pwr=0.25
SYMBOL cap 512 -32 R90
WINDOW 0 0 32 VBottom 2
WINDOW 3 32 32 VTop 2
SYMATTR InstName C4
SYMATTR Value 10p
SYMATTR SpiceLine V=630 Irms=0 Rser=0 Lser=0 mfg="Murata" pn="GCM31A5C2J100JX01" type="C0G"
SYMBOL res 656 80 R90
WINDOW 0 0 56 VBottom 2
WINDOW 3 32 56 VTop 2
SYMATTR InstName R5
SYMATTR Value 1Meg
SYMATTR SpiceLine tol=0.1 pwr=0.25
SYMBOL cap 624 -32 R90
WINDOW 0 0 32 VBottom 2
WINDOW 3 32 32 VTop 2
SYMATTR InstName C5
SYMATTR Value 10p
SYMATTR SpiceLine V=630 Irms=0 Rser=0 Lser=0 mfg="Murata" pn="GCM31A5C2J100JX01" type="C0G"
SYMBOL Misc\\LT5400-1 816 336 R0
SYMATTR InstName U1
SYMBOL res 736 288 R90
WINDOW 0 6 109 VBottom 2
WINDOW 3 32 56 VTop 2
SYMATTR InstName R6
SYMATTR Value 91
SYMATTR SpiceLine tol=1
SYMBOL res 736 352 R90
WINDOW 0 4 95 VBottom 2
WINDOW 3 32 56 VTop 2
SYMATTR InstName R7
SYMATTR Value 91
SYMATTR SpiceLine tol=1
SYMBOL res 208 672 R90
WINDOW 0 0 56 VBottom 2
WINDOW 3 32 56 VTop 2
SYMATTR InstName R8
SYMATTR Value 1Meg
SYMATTR SpiceLine tol=0.1 pwr=0.25
SYMBOL cap 176 560 R90
WINDOW 0 0 32 VBottom 2
WINDOW 3 32 32 VTop 2
SYMATTR InstName C6
SYMATTR Value 10p
SYMATTR SpiceLine V=630 Irms=0 Rser=0 Lser=0 mfg="Murata" pn="GCM31A5C2J100JX01" type="C0G"
SYMBOL res 320 672 R90
WINDOW 0 0 56 VBottom 2
WINDOW 3 32 56 VTop 2
SYMATTR InstName R9
SYMATTR Value 1Meg
SYMATTR SpiceLine tol=0.1 pwr=0.25
SYMBOL cap 288 560 R90
WINDOW 0 0 32 VBottom 2
WINDOW 3 32 32 VTop 2
SYMATTR InstName C7
SYMATTR Value 10p
SYMATTR SpiceLine V=630 Irms=0 Rser=0 Lser=0 mfg="Murata" pn="GCM31A5C2J100JX01" type="C0G"
SYMBOL res 432 672 R90
WINDOW 0 0 56 VBottom 2
WINDOW 3 32 56 VTop 2
SYMATTR InstName R10
SYMATTR Value 1Meg
SYMATTR SpiceLine tol=0.1 pwr=0.25
SYMBOL cap 400 560 R90
WINDOW 0 0 32 VBottom 2
WINDOW 3 32 32 VTop 2
SYMATTR InstName C8
SYMATTR Value 10p
SYMATTR SpiceLine V=630 Irms=0 Rser=0 Lser=0 mfg="Murata" pn="GCM31A5C2J100JX01" type="C0G"
SYMBOL res 544 672 R90
WINDOW 0 0 56 VBottom 2
WINDOW 3 32 56 VTop 2
SYMATTR InstName R11
SYMATTR Value 1Meg
SYMATTR SpiceLine tol=0.1 pwr=0.25
SYMBOL cap 512 560 R90
WINDOW 0 0 32 VBottom 2
WINDOW 3 32 32 VTop 2
SYMATTR InstName C9
SYMATTR Value 10p
SYMATTR SpiceLine V=630 Irms=0 Rser=0 Lser=0 mfg="Murata" pn="GCM31A5C2J100JX01" type="C0G"
SYMBOL res 656 672 R90
WINDOW 0 0 56 VBottom 2
WINDOW 3 32 56 VTop 2
SYMATTR InstName R12
SYMATTR Value 1Meg
SYMATTR SpiceLine tol=0.1 pwr=0.25
SYMBOL cap 624 560 R90
WINDOW 0 0 32 VBottom 2
WINDOW 3 32 32 VTop 2
SYMATTR InstName C10
SYMATTR Value 10p
SYMATTR SpiceLine V=630 Irms=0 Rser=0 Lser=0 mfg="Murata" pn="GCM31A5C2J100JX01" type="C0G"
SYMBOL res 624 288 R90
WINDOW 0 10 117 VBottom 2
WINDOW 3 32 56 VTop 2
SYMATTR InstName R13
SYMATTR Value 50
SYMATTR SpiceLine tol=1
SYMBOL res 624 352 R90
WINDOW 0 11 114 VBottom 2
WINDOW 3 32 56 VTop 2
SYMATTR InstName R14
SYMATTR Value 50
SYMBOL voltage 96 272 R0
SYMATTR InstName V1
SYMBOL OpAmps\\ADA4807-1 1440 0 R0
SYMATTR InstName U2
SYMBOL cap 720 0 R0
SYMATTR InstName C11
SYMATTR Value 330p
SYMATTR SpiceLine V=50 Irms=0 Rser=0.0873 Lser=449p mfg="Würth Elektronik" pn="885012007060 WCAP-CSGP 0805" type="NP0"
SYMBOL cap 816 0 R0
SYMATTR InstName C12
SYMATTR Value 120p
SYMATTR SpiceLine V=50 Irms=0 Rser=0 Lser=0 mfg="Murata" pn="GCM1555C1H121JA16" type="C0G"
SYMBOL res 1136 0 R0
SYMATTR InstName R15
SYMATTR Value 1Meg
SYMATTR SpiceLine tol=1 pwr=0.1
SYMBOL voltage 672 -352 R0
WINDOW 123 0 0 Left 0
WINDOW 39 0 0 Left 0
SYMATTR InstName V2
SYMATTR Value 5
SYMBOL voltage 800 -352 R0
WINDOW 123 0 0 Left 0
WINDOW 39 0 0 Left 0
SYMATTR InstName V3
SYMATTR Value -5
